
**** 12/03/21 11:26:52 ********* PSpice 9.2 (Mar 2000) ******** ID# 1 ********

 ** Profile: "SCHEMATIC1-1"  [ C:\THINGS\UNI\3RDTERM\ELEC\LAB\ELECTRICALANDELECTRONICCIRCUITSLAB\ELECLAB7\Orcad\lab7-SCHEMATIC1-1.sim


 ****     CIRCUIT DESCRIPTION


******************************************************************************




** Creating circuit file "lab7-SCHEMATIC1-1.sim.cir" 
** WARNING: THIS AUTOMATICALLY GENERATED FILE MAY BE OVERWRITTEN BY SUBSEQUENT SIMULATIONS

*Libraries: 
* Local Libraries :
* From [PSPICE NETLIST] section of C:\Program Files\Orcad\PSpice\PSpice.ini file:
.lib "nom.lib" 

*Analysis directives: 
.AC DEC 100 0.1 1000k
.PROBE V(*) I(*) W(*) D(*) NOISE(*) 
.INC ".\lab7-SCHEMATIC1.net" 



**** INCLUDING lab7-SCHEMATIC1.net ****
* source LAB7
R_R1         N00120 N00061  1k  
C_C1         0 N00061  1u   
V_V1         N00120 0 DC 0Vdc AC 1Vac 

**** RESUMING lab7-SCHEMATIC1-1.sim.cir ****
.END

**** 12/03/21 11:26:52 ********* PSpice 9.2 (Mar 2000) ******** ID# 1 ********

 ** Profile: "SCHEMATIC1-1"  [ C:\THINGS\UNI\3RDTERM\ELEC\LAB\ELECTRICALANDELECTRONICCIRCUITSLAB\ELECLAB7\Orcad\lab7-SCHEMATIC1-1.sim


 ****     SMALL SIGNAL BIAS SOLUTION       TEMPERATURE =   27.000 DEG C


******************************************************************************



 NODE   VOLTAGE     NODE   VOLTAGE     NODE   VOLTAGE     NODE   VOLTAGE


(N00061)    0.0000 (N00120)    0.0000 




    VOLTAGE SOURCE CURRENTS
    NAME         CURRENT

    V_V1         0.000E+00

    TOTAL POWER DISSIPATION   0.00E+00  WATTS



          JOB CONCLUDED

          TOTAL JOB TIME             .25
