
**** 12/04/21 16:05:53 ********* PSpice 9.2 (Mar 2000) ******** ID# 1 ********

 ** Profile: "SCHEMATIC1-1"  [ C:\THINGS\UNI\3RDTERM\ELEC\LAB\ELECTRICALANDELECTRONICCIRCUITSLAB\ELECLAB8\Orcad\eleclab8-SCHEMATIC1-1


 ****     CIRCUIT DESCRIPTION


******************************************************************************




** Creating circuit file "eleclab8-SCHEMATIC1-1.sim.cir" 
** WARNING: THIS AUTOMATICALLY GENERATED FILE MAY BE OVERWRITTEN BY SUBSEQUENT SIMULATIONS

*Libraries: 
* Local Libraries :
* From [PSPICE NETLIST] section of C:\Program Files\Orcad\PSpice\PSpice.ini file:
.lib "nom.lib" 

*Analysis directives: 
.DC LIN V_V1 0 15 0.1 
.PROBE V(*) I(*) W(*) D(*) NOISE(*) 
.INC ".\eleclab8-SCHEMATIC1.net" 



**** INCLUDING eleclab8-SCHEMATIC1.net ****
* source ELECLAB8
D_D1         N00147 0 D1N4001 
V_V1         N00117 0 0Vdc
R_R1         N00117 N00147  1k  

**** RESUMING eleclab8-SCHEMATIC1-1.sim.cir ****
.END

**** 12/04/21 16:05:53 ********* PSpice 9.2 (Mar 2000) ******** ID# 1 ********

 ** Profile: "SCHEMATIC1-1"  [ C:\THINGS\UNI\3RDTERM\ELEC\LAB\ELECTRICALANDELECTRONICCIRCUITSLAB\ELECLAB8\Orcad\eleclab8-SCHEMATIC1-1


 ****     Diode MODEL PARAMETERS


******************************************************************************




               D1N4001         
          IS   14.110000E-09 
           N    1.984        
         IKF   94.81         
          BV   75            
         IBV   10.000000E-06 
          RS     .03389      
          TT    5.700000E-06 
         CJO   25.890000E-12 
          VJ     .3245       
           M     .44         



          JOB CONCLUDED

          TOTAL JOB TIME             .16
