
**** 12/26/21 13:27:28 ********* PSpice 9.2 (Mar 2000) ******** ID# 1 ********

 ** Profile: "SCHEMATIC1-3-2"  [ C:\THINGS\UNI\3RDTERM\ELEC\LAB\ELECTRICALANDELECTRONICCIRCUITSLAB\ELECLAB9\OrCad\lab10-schematic1-3-


 ****     CIRCUIT DESCRIPTION


******************************************************************************




** Creating circuit file "lab10-schematic1-3-2.sim.cir" 
** WARNING: THIS AUTOMATICALLY GENERATED FILE MAY BE OVERWRITTEN BY SUBSEQUENT SIMULATIONS

*Libraries: 
* Local Libraries :
* From [PSPICE NETLIST] section of C:\Program Files\Orcad\PSpice\PSpice.ini file:
.lib "nom.lib" 

*Analysis directives: 
.AC DEC 1000 0.001 30k
.PROBE V(*) I(*) W(*) D(*) NOISE(*) 
.INC ".\lab10-SCHEMATIC1.net" 



**** INCLUDING lab10-SCHEMATIC1.net ****
* source LAB10
X_U1         0 N00418 N00148 N00185 N00631 LM741
X_U3         N06058 N05862 N05896 N05954 N05790 LM741
V_V3         N00766 0  
+SIN 0 1 1k 0 0 0
C_C1         N04466 N04095  100n   
V_V6         N03596 0  
+SIN 0 1 1k 0 0 0
V_V9         N04043 0  
+SIN 0 2 20 0 0 0
V_V8         N05896 0 9Vdc
R_R3         0 N03185  1k  
R_R5         N06052 N05862  10k  
V_V1         0 N00185 10Vdc
V_V8         N04185 0 9Vdc
$
ERROR -- Name "V_V8" is defined more than once
V_V5         N03381 0 10Vdc
----------------------$
ERROR -- Expecting keyword STIMULUS, saw 10Vdc.

V_V7         0 N05954 9Vdc
V_V2         N00148 0 10Vdc
V_V4         0 N03297 10Vdc
C_C1         N05790 N05862  100n   
$
ERROR -- Name "C_C1" is defined more than once
R_R5         N04043 N04095  10k  
$
ERROR -- Name "R_R5" is defined more than once
R_R1         N00766 N00418  1k  
R_R4         N03185 N03225  5.6k  
R_R2         N00418 N00631  5.6k  
X_U3         N03983 N04095 N04185 N03943 N04466 LM741
-----------------------------------------------------$
ERROR -- Name "X_U3" is defined more than once
V_V10         N06052 0 DC 0Vdc AC 1Vac 
R_R7         0 N03983  10k  
R_R7         0 N06058  10k  
$
ERROR -- Name "R_R7" is defined more than once
X_U2         N03596 N03185 N03381 N03297 N03225 LM741
V_V7         0 N03943 9Vdc
$
ERROR -- Name "V_V7" is defined more than once
R_R6         N05790 N05862  10k  
--------------------$
ERROR -- Expecting keyword STIMULUS, saw N05862.

R_R6         N04466 N04095  10k  

**** RESUMING lab10-schematic1-3-2.sim.cir ****
.END
